orb_iyear   = -19050
orb_mode    = 'fixed_year'
